Version 4.1
SHEET 1 1068 872
WIRE 320 -112 -80 -112
WIRE -80 -48 -80 -112
WIRE -80 -48 -352 -48
WIRE 176 -48 -80 -48
WIRE 320 -48 320 -112
WIRE -352 16 -352 -48
WIRE 176 16 176 -48
WIRE -224 32 -304 32
WIRE -96 32 -224 32
WIRE -352 64 -352 32
WIRE 176 64 176 32
WIRE -96 96 -96 32
WIRE 128 96 -96 96
WIRE -352 144 -352 112
WIRE -224 144 -224 32
WIRE -224 144 -352 144
WIRE -864 192 -944 192
WIRE 176 192 176 112
WIRE 272 192 176 192
WIRE 368 192 272 192
WIRE -944 240 -944 192
WIRE -864 288 -864 192
WIRE -352 288 -352 144
WIRE 176 288 176 192
WIRE 368 288 368 256
WIRE -128 336 -352 336
WIRE 176 336 -128 336
WIRE -400 368 -496 368
WIRE -128 368 -128 336
WIRE 128 432 128 368
WIRE 272 432 128 432
WIRE -496 448 -496 368
WIRE -352 464 -352 384
WIRE -144 464 -352 464
WIRE 176 464 176 384
WIRE 176 464 -144 464
WIRE 272 464 272 432
WIRE -864 512 -864 368
WIRE -864 512 -960 512
WIRE -144 544 -144 464
WIRE -960 592 -960 512
WIRE -912 592 -960 592
WIRE -864 592 -864 560
WIRE -144 624 -144 592
WIRE -960 672 -960 592
WIRE -192 672 -192 624
WIRE -192 672 -960 672
WIRE -144 688 -144 640
WIRE -864 704 -864 608
WIRE -496 720 -496 528
WIRE 272 720 272 544
WIRE -496 832 -496 800
WIRE 272 832 272 800
FLAG -864 704 0
FLAG -944 240 0
FLAG -496 832 0
FLAG 272 832 0
FLAG 320 32 0
FLAG 368 288 0
FLAG 272 192 Output
FLAG -144 688 0
FLAG -128 368 0
SYMBOL lib\\sym\\current -864 288 R0
WINDOW 123 0 0 Left 0
WINDOW 39 0 0 Left 0
SYMATTR InstName I1
SYMATTR Value 50µ
SYMBOL lib\\sym\\voltage 320 -64 R0
WINDOW 123 0 0 Left 0
WINDOW 39 0 0 Left 0
SYMATTR InstName VDD
SYMATTR Value 1.8
SYMBOL voltage -496 432 R0
WINDOW 123 24 124 Left 2
WINDOW 39 0 0 Left 0
SYMATTR Value2 AC 1
SYMATTR InstName V1
SYMATTR Value SINE(0 4m 1k)
SYMBOL voltage 272 448 R0
WINDOW 123 24 124 Left 2
WINDOW 39 0 0 Left 0
SYMATTR Value2 AC 0
SYMATTR InstName V2
SYMATTR Value SINE(0 4m 1k 0 0 180)
SYMBOL voltage -496 704 R0
WINDOW 123 0 0 Left 0
WINDOW 39 0 0 Left 0
SYMATTR InstName V3
SYMATTR Value 1.2
SYMBOL voltage 272 704 R0
WINDOW 123 0 0 Left 0
WINDOW 39 0 0 Left 0
SYMATTR InstName V4
SYMATTR Value 1.2
SYMBOL cap 352 192 R0
SYMATTR InstName C1
SYMATTR Value 10p
SYMBOL lib\\sym\\cmosn -912 512 R0
WINDOW 0 56 32 Left 2
WINDOW 3 56 72 Left 2
SYMATTR InstName M00
SYMATTR Value2 l=1u w=6u
SYMBOL lib\\sym\\cmosn -192 544 R0
WINDOW 0 56 32 Left 2
WINDOW 3 56 72 Left 2
SYMATTR InstName M0
SYMATTR Value2 l=1u w=6u
SYMBOL lib\\sym\\cmosn -400 288 R0
WINDOW 0 56 32 Left 2
WINDOW 3 56 72 Left 2
SYMATTR InstName M1
SYMATTR Value2 l=1u w=9u
SYMBOL lib\\sym\\cmosn 128 288 R0
WINDOW 0 56 32 Left 2
WINDOW 3 56 72 Left 2
SYMATTR InstName M2
SYMATTR Value2 l=1u w=9u
SYMBOL lib\\sym\\cmosp -304 112 R180
WINDOW 0 56 32 Left 2
WINDOW 3 56 72 Left 2
SYMATTR InstName M3
SYMATTR Value2 l=1u w=17u
SYMBOL lib\\sym\\cmosp 128 16 R0
WINDOW 0 56 32 Left 2
WINDOW 3 56 72 Left 2
SYMATTR InstName M4
SYMATTR Value2 l=1u w=17u
TEXT -944 -88 Left 2 !.INCLUDE C:\\Users\\asus\\Documents\\LTspice\\lib\\sub\\tsmc018.lib
TEXT -960 856 Left 2 !.tran 10m
TEXT -960 816 Left 2 ;.ac dec 100 10 20meg
